[General]
network = LothianBusNet
#random-seed = 13
cmdenv-express-mode = true
record-eventlog = false
sim-time-limit = 86400s

tkenv-default-config = 

cmdenv-event-banners = true
cmdenv-module-messages = true

##############################################################################
#       Parameters for the entire simulation                                 #
##############################################################################

**.cmdenv-ev-output = false
**.module-eventlog-recording = false
**.vector-recording = false
**.scalar-recording = false

**.channel.throughput.result-recording-modes = all
**.numHosts = 2 #145
**.coreDebug = false


# channel physical parameters
*.channelControl.propagationModel = "TwoRayGroundModel" #Two ray ground, move to log normal or rayleigh later
*.channelControl.pMax = 20.0mW


**.configurator.config = xmldoc("configurator.xml")

**.router.networkLayer.arp.cacheTimeout = 10s
**.router.networkLayer.arp.globalARP = true

#SINK STUFF#

**.sink.eth[*].mac.duplexMode = true
**.eth[*].typename="EthernetInterface"


**.sink.numUdpApps = 1
**.sink.udpApp[0].typename="UDPEchoApp"
**.sink.udpApp[0].localPort = 12345

**.bus[*].numUdpApps = 1
**.bus[*].udpApp[0].typename = "UDPBasicApp"
**.bus[*].udpApp[0].destAddresses = "10.0.2.1"
**.bus[*].udpApp[0].destPort = 12345
**.bus[*].udpApp[0].localPort = 12345
**.bus[*].udpApp[0].sendInterval = 0.01s
**.bus[*].udpApp[0].messageLength = 0
**.bus[*].wlan[1].mgmtType = "Ieee80211MgmtAdhoc"

#Look at the socket documentation



#**.sink.numTcpApps = 1
#**.sink.tcpApp[0].typename="TCPSinkApp"
#**.sink.tcpApp[0].dataTransferMode = "object"
#**.sink.tcpApp[0].localPort = 12345

#**.bus[*].numTcpApps = 1
#**.bus[*].tcpApp[0].typename = "TCPBasicClientApp"
#**.bus[*].tcpApp[0].dataTransferMode = "object"
#**.bus[*].tcpApp[0].numRequestsPerSession = 10
#**.bus[*].tcpApp[0].connectPort = 12345
#**.bus[*].tcpApp[0].connectAddress = "10.0.2.1"


**.ap[*].mobilityType = "APPositioner"
**.bus[*].mobilityType = "BusMobility"

**.bus[0].id = 0
**.bus[1].id = 1
**.bus[2].id = 2
**.bus[3].id = 3
**.bus[4].id = 4
**.bus[5].id = 5
**.bus[6].id = 6
**.bus[7].id = 7
**.bus[8].id = 8
**.bus[9].id = 9
**.bus[10].id = 10
**.bus[11].id = 11
**.bus[12].id = 12
**.bus[13].id = 13
**.bus[14].id = 14
**.bus[15].id = 15
**.bus[16].id = 16
**.bus[17].id = 17
**.bus[18].id = 18
**.bus[19].id = 19
**.bus[20].id = 20
**.bus[21].id = 21
**.bus[22].id = 22
**.bus[23].id = 23
**.bus[24].id = 24
**.bus[25].id = 25
**.bus[26].id = 26
**.bus[27].id = 27
**.bus[28].id = 28
**.bus[29].id = 29
**.bus[30].id = 30
**.bus[31].id = 31
**.bus[32].id = 32
**.bus[33].id = 33
**.bus[34].id = 34
**.bus[35].id = 35
**.bus[36].id = 36
**.bus[37].id = 37
**.bus[38].id = 38
**.bus[39].id = 39
**.bus[40].id = 40
**.bus[41].id = 41
**.bus[42].id = 42
**.bus[43].id = 43
**.bus[44].id = 44
**.bus[45].id = 45
**.bus[46].id = 46
**.bus[47].id = 47
**.bus[48].id = 48
**.bus[49].id = 49
**.bus[50].id = 50
**.bus[51].id = 51
**.bus[52].id = 52
**.bus[53].id = 53
**.bus[54].id = 54
**.bus[55].id = 55
**.bus[56].id = 56
**.bus[57].id = 57
**.bus[58].id = 58
**.bus[59].id = 59
**.bus[60].id = 60
**.bus[61].id = 61
**.bus[62].id = 62
**.bus[63].id = 63
**.bus[64].id = 64
**.bus[65].id = 65
**.bus[66].id = 66
**.bus[67].id = 67
**.bus[68].id = 68
**.bus[69].id = 69
**.bus[70].id = 70
**.bus[71].id = 71
**.bus[72].id = 72
**.bus[73].id = 73
**.bus[74].id = 74
**.bus[75].id = 75
**.bus[76].id = 76
**.bus[77].id = 77
**.bus[78].id = 78
**.bus[79].id = 79
**.bus[80].id = 80
**.bus[81].id = 81
**.bus[82].id = 82
**.bus[83].id = 83
**.bus[84].id = 84
**.bus[85].id = 85
**.bus[86].id = 86
**.bus[87].id = 87
**.bus[88].id = 88
**.bus[89].id = 89
**.bus[90].id = 90
**.bus[91].id = 91
**.bus[92].id = 92
**.bus[93].id = 93
**.bus[94].id = 94
**.bus[95].id = 95
**.bus[96].id = 96
**.bus[97].id = 97
**.bus[98].id = 98
**.bus[99].id = 99
**.bus[100].id = 100
**.bus[101].id = 101
**.bus[102].id = 102
**.bus[103].id = 103
**.bus[104].id = 104
**.bus[105].id = 105
**.bus[106].id = 106
**.bus[107].id = 107
**.bus[108].id = 108
**.bus[109].id = 109
**.bus[110].id = 110
**.bus[111].id = 111
**.bus[112].id = 112
**.bus[113].id = 113
**.bus[114].id = 114
**.bus[115].id = 115
**.bus[116].id = 116
**.bus[117].id = 117
**.bus[118].id = 118
**.bus[119].id = 119
**.bus[120].id = 120
**.bus[121].id = 121
**.bus[122].id = 122
**.bus[123].id = 123
**.bus[124].id = 124
**.bus[125].id = 125
**.bus[126].id = 126
**.bus[127].id = 127
**.bus[128].id = 128
**.bus[129].id = 129
**.bus[130].id = 130
**.bus[131].id = 131
**.bus[132].id = 132
**.bus[133].id = 133
**.bus[134].id = 134
**.bus[135].id = 135
**.bus[136].id = 136
**.bus[137].id = 137
**.bus[138].id = 138
**.bus[139].id = 139
**.bus[140].id = 140
**.bus[141].id = 141
**.bus[142].id = 142
**.bus[143].id = 143
**.bus[144].id = 144
**.bus[145].id = 145

**.bus[0].udpApp[0].positions = "1966 1982 2570 2808 3520 3528 3761 3791 3972 3989 3992 4016 4158 4186 4188 4201 4393 4428 4518 4538 5091 5137 5497 5505 9077 9095 9522 9601 9985 9995 10172 10178 10360 10371 10373 10384 10711 10722 10724 10742 10994 11015 11118 11136 11634 11663 12093 12106 15684 15716 16137 16160 16551 16575 16689 16693 16873 16887 16889 16903 18117 18122 18124 18130 18275 18301 18389 18405 18767 18794 19190 19204 50365 50376 50378 50389 50556 50567 50641 50652 51069 51111 51427 51437 54922 55005 55525 55632 55997 56008 56261 56272 56387 56396 56398 56408 57327 57339 57341 57364 57621 57626 57725 57743 58353 58373 58700 58717 63052 63076 63515 63532 64315 64333 64510 64569 64727 64738 64740 64750 64961 64982 65287 65321 65445 65461 66402 66440 66800 66812 71042 71058 71543 72025 73085 73097 73221 73278 73485 73501 73503 73519 73663 73680 73682 73699 74004 74040 74226 74244 74847 74864 75301 75311 79441 79453 79893 79908 81056 81071 81228 81240 81418 81435 81828 81834 81836 81844 82067 82085 82187 82202 82756 82817 83138 83157 87595 87613"
**.bus[1].udpApp[0].positions = "33 53 55 74 212 236 475 506 636 656 1120 1161 1882 1896 44993 45004 45006 45017 45238 45264 45347 45362 45744 45753 46028 46040 49452 49517 49812 49897 50195 50214 50325 50352 50505 50513 50515 50523 51352 51363 51365 51376 51691 51728 51900 51933 52423 52439 52782 52800 56938 56950 57331 57375 57773 57783 57892 57898 58022 58037 58039 58054 58537 58560 58563 58592 58902 58936 59094 59108 59540 59563 59958 59969 64754 64769 65241 65401 66618 66641 66977 66995 66998 67017 67203 67217 67219 67251 67576 67622 67767 67790 68920 68970 69319 69330 72748 72762 73178 73339 74546 74569 74672 74714 74843 74850 74852 74869 75012 75021 75023 75032 75196 75249 76024 76068 76902 76988 77385 77396 80902 80935 81534 81557 82151 82163 82372 82396 82549 82566 82568 82591 82921 82958 83167 83188 83350 83363 83994 84011"
**.bus[2].udpApp[0].positions = "42731 42741 45416 45425 45673 45699 45870 45884 46016 46040 46171 46181 46184 46194 46844 46866 47090 47093 47184 47198 47637 47652 48027 48036 51407 51417 51810 51824 52185 52197 52293 52297 52441 52457 53151 53174 53176 53189 53393 53445 53612 53624 53941 53960 54356 54370 58284 58294 58751 58846 59234 59243 59374 59396 59571 59581 59584 59627 60301 60386 60388 60403 60705 60731 61071 61089 61692 61706 62029 62041 66731 66751 67361 67523 68304 68312 68473 68476 68478 68488 68807 68850 68852 68874 69151 69222 69377 69387 70135 70155 70512 70518 74700 74711 75156 75226 76058 76068 76190 76249 76411 76420 76422 76431 76685 76694 76696 76708 76912 76974 77233 77244 77993 78070 78359 78385 82596 82609 83255 83311 83846 83861 84058 84075 84236 84252 84255 84273 84788 84797 84799 84810 85068 85143 85352 85391 86550 86658"
**.bus[3].udpApp[0].positions = "150 170 379 393 395 410 812 818 821 828 1065 1132 1227 1249 1853 1877 2582 2612 6503 6536 6968 6989 7337 7361 7511 7548 7703 7714 7716 7728 8934 8935 8939 8941 9082 9121 9347 9361 9933 9947 10366 10377 13620 13630 14106 14182 14663 14674 14775 14804 14965 14981 16126 16127 16130 16133 16324 16358 16475 16501 16954 17063 17453 17468 20797 20811 21278 21297 21688 21698 21812 21822 21976 21995 21997 22012 56347 56355 56357 56365 56571 56627 56776 56794 57291 57313 57675 57693 62082 62114 62640 62814 63627 63650 63912 63967 63969 63980 64185 64212 64214 64240 64593 64624 64852 64871 65401 65433 65843 65850 70073 70087 70660 70806 72017 72035 72174 72176 72364 72385 72556 72570 72572 72586 72737 72748 72863 72883 73658 73790 74233 74245 77961 77982 78581 78747 79727 79740 79982 80004 80280 80290 80292 80301 80533 80548 80550 80565 80832 80869 81586 81634 82012 82027 86363 86385 86965 87083 87546 87571 87806 87876 88060 88081 88084 88102"
**.bus[4].udpApp[0].positions = "1579 1607 2529 2697 3430 3443 55581 55581 55585 55585 55994 56024 59273 59282 59850 59984 60625 60653 60768 60769 60936 60948 60951 60962 61309 61364 61366 61380 61719 61733 61873 61896 62785 62815 63156 63170 67480 67493 68006 68108 68865 68881 69054 69092 69279 69299 69301 69321 69475 69493 69495 69511 69717 69754 69873 69958 70802 70880 71300 71321 75393 75400 75960 76051 76902 76914 77067 77086 77264 77283 77286 77303 77465 77485 77680 77710 77943 77960 78616 78695 79091 79103 83525 83549 83938 84036 84539 84550 84723 84775 85034 85049 85052 85066 85988 86001 86003 86016 86256 86301 86506 86529 87349 87366"
**.bus[5].udpApp[0].positions = "298 319 44203 44213 47094 47111 47474 47484 47795 47810 47912 47941 48059 48069 48071 48081 48618 48633 48635 48655 48816 48835 49006 49015 49349 49374 49788 49796 52985 52997 53332 53347 53724 53736 54012 54032 54122 54129 54131 54144 54921 54938 54940 54955 55191 55213 55359 55378 56133 56159 56546 56559 60976 61002 61517 61604 62509 62527 62788 62799 62801 62854 63012 63041 63043 63062 63391 63426 63656 63679 64488 64516 64877 64903 69462 69477 70209 70365 71333 71343 71469 71497 71706 71724 71726 71742 71921 71931 71933 71944 72373 72426 72630 72676 73400 73522 74099 74122 77909 77942 78499 78551 79641 79649 80121 80133 80604 80644 80959 80975 85343 85387 85878 85908 86430 86444 86581 86584 86743 86767"
**.bus[6].udpApp[0].positions = "421 453 1128 1157 4933 4947 5442 5476 5814 5827 5938 5963 6124 6143 6146 6167 7071 7106 7297 7322 7598 7615 8131 8177 8563 8578 12307 12320 12948 12968 13417 13435 13603 13627 13782 13798 13800 13816 14327 14347 14501 14534 14663 14681 15037 15052 15482 15501 19014 19025 19448 19571 19947 19960 20091 20098 20254 20266 20268 20285 20611 20630 20813 20850 20929 20946 48179 48224 48252 48261 48899 48908 52421 52433 53204 53213 53230 53238 59462 59483 59485 59502 59791 59833 59943 59964 60801 60834 61213 61222 65836 65848 66256 66336 67672 67699 67808 67884 68055 68063 68065 68076 68320 68335 68337 68354 68620 68643 68765 68801 69699 69715 70020 70035 73724 73736 74267 74348 75473 75493 75621 75652 75811 75822 75824 75835 75964 75988 75990 76019 76294 76331 76578 76599 77277 77309 77685 77702 81769 81785 82309 82355 82942 82957 83400 83422 83426 83450 83827 83857 84084 84137 84370 84388 84927 84992"
**.bus[7].udpApp[0].positions = "3276 3291 3924 4103 4462 4475 4589 4603 4744 4764 4767 4784 5113 5123 5125 5144 5300 5333 5463 5488 5814 5833 6204 6224 9994 10004 10275 10324 10744 10764 10983 10990 11154 11166 11169 11187 12584 12625 12627 12634 12868 12920 13009 13021 13531 13540 13882 13901 17506 17522 18029 18045 18361 18372 18506 18529 18719 18735 18737 18761 19128 19150 19274 19284 19373 19396 60397 60422 63955 63964 64687 64771 65627 65643 65959 65988 65991 66016 66139 66182 66436 66545 66719 66737 67567 67629 68005 68014 72208 72230 72759 72988 73964 73979 74189 74229 74374 74384 74386 74394 74557 74598 74600 74620 74861 74891 74996 75021 75921 76047 76428 76448 80046 80059 80422 80523 81285 81301 81408 81428 81601 81607 81609 81615 81968 81991 82203 82246 82328 82338 82737 82864"
**.bus[8].udpApp[0].positions = "1408 1466 2131 2925 56999 57023 60222 60228 60788 60817 61477 61488 61609 61671 61870 61888 62310 62344 62346 62360 62602 62631 62863 62887 63490 63534 63887 63904 68496 68507 69206 69253 70582 70611 70792 70801 70807 70815 71160 71186 71188 71205 71524 71589 71794 71815 72686 72719 73209 73225 76641 76651 77353 77568 78258 78281 78424 78482 78615 78639 78651 78675 78845 78858 78860 78874 79078 79090 79317 79346 79889 79920 80283 80290 84342 84364 84839 85004 85649 85680 85910 85980 86151 86167 86173 86211 87260 87271 87273 87285 87474 87521 87680 87699"
**.bus[9].udpApp[0].positions = "785 801 2073 2121 2339 2369 2758 2769 7204 7215 7489 7534 7681 7704 8862 8876 10889 10910 12058 12139 12276 12303 12613 12645 14605 14617 14848 14874 15004 15018"
**.bus[10].udpApp[0].positions = "121 131 1641 1762 1825 1852 2061 2073 6699 6730 6966 7020 7231 7242 7425 7443 7874 7874 7876 7876 43038 43047 43827 43839 44993 45007 45860 45873 45932 45949 46126 46136 50986 51002 51176 51196 51355 51367 52214 52217 53337 53349 54695 54733 54872 54887 55088 55134 57917 57933 58166 58219 58354 58382 59746 59758 61386 61397 63091 63152 63292 63314 63584 63613 69788 69809 70068 70111 70212 70245 71670 71685 73042 73052 75119 75148 75409 75435 75648 75665 77639 77669 77945 77985 78125 78142 79978 79995 81062 81085 82730 82830 82968 83003"
**.bus[11].udpApp[0].positions = "1824 1846 2207 2255 2452 2470 4072 4086 5446 5460 6739 6771 6983 7007 7207 7228 12247 12260 12572 12605 12747 12780 14697 14704 15665 15857 16074 16106 16312 16357 18027 18038 18207 18259 18520 18546 19635 19645 20365 20371 21053 21066 55201 55219 56603 56641 56789 56800 57032 57046 59816 59836 60214 60255 60373 60392 61912 61926 63251 63262 65565 65650 65796 65848 66095 66120 71716 71728 72005 72048 72277 72300 74887 74906 76966 77053 77186 77217 77425 77436 79627 79643 79981 80008 80180 80199 81787 81798 82970 82985 84457 84477 84636 84661"
**.bus[12].udpApp[0].positions = "3270 3299 3506 3523 3860 3875 5179 5196 50964 50978 52056 52093 52224 52243 52368 52400 58958 58976 59349 59402 59558 59571 60845 60865 62233 62244 63717 63733 63917 63936 64201 64268 67163 67292 67632 67659 67886 67902 70435 70447 72810 72832 73005 73030 73238 73253 78509 78575 78890 78910 79120 79137 82176 82188 83934 84021 84182 84237 84480 84502 86480 86514 86930 87033"
**.bus[13].udpApp[0].positions = "222 254 1373 1389 2796 2855 3065 3090 3261 3274 8085 8118 8340 8366 8539 8559 8718 8760 43194 43244 44118 44135 44206 44231 44363 44377 48910 48918 49140 49156 49230 49251 50259 50274 51736 51748 52832 52892 52972 52985 53155 53201 55786 55804 56133 56150 56281 56293 57509 57520 58694 58705 60315 60360 60533 60548 60710 60722 63544 63566 63824 63859 63979 63990 66893 66934 69077 69104 69269 69309 69567 69588 75039 75058 75245 75292 75501 75524 77048 77060 78438 78451 80625 80682 80888 80901 81149 81168 83050 83075 83334 83389 83550 83571 85183 85202 86303 86316 87952 88023"
**.bus[14].udpApp[0].positions = "375 485 664 712 991 1005 6036 6068 6333 6395 6534 6547 7781 7789 8988 9000 10152 10187 10347 10400 10614 10650 12695 12707 12884 12911 13087 13132 13320 13336 41392 41399 42306 42323 42383 42399 42517 42527 47219 47236 47345 47363 47414 47428 48329 48346 49757 49764 50817 50840 50917 50933 51042 51180 57285 57313 57732 57777 57982 57994 59235 59243 60410 60449 62014 62048 62180 62202 62425 62464 68314 68327 68722 68782 68931 68942 70514 70540 71679 71699 73843 73944 74208 74266 74513 74562 76391 76403 76747 76825 77061 77085 79222 79236 79280 79357 81325 81411 81568 81587 81791 81802 87374 87400 87636 87679"
**.bus[15].udpApp[0].positions = "220 278 525 690 898 916 5606 5623 5893 5915 6156 6186 6404 6422 52237 52253 53216 53226 54284 54294 55571 55590 55718 55743 55901 55934 62846 62866 63108 63165 63377 63400 64836 64851 65911 65940 67883 67966 68102 68204 68423 68439 70860 70873 71126 71185 71303 71317 74094 74109 76012 76036 76367 76436 76697 76755 82300 82317 82613 82693 82846 82877 84753 84781 85857 85868"
**.bus[16].udpApp[0].positions = "86 138 385 398 1839 1854 3574 3594 4794 4825 4979 5015 5365 5383 10694 10713 11028 11058 11190 11276 12568 12581 13525 13541 14568 14650 14850 14878 15153 15169 16831 16849 17003 17030 17142 17154 18117 18132 18942 18957 19853 19869 53808 53819 54886 54898 56841 56883 58230 58256 58465 58490 58665 58690 61504 61517 61875 61916 62085 62099 63761 63777 64976 64987 67079 67094 67358 67371 67770 67809 73415 73433 73693 73756 73949 73974 76597 76611 78717 78748 78909 78959 79187 79202 81286 81299 81550 81577 81858 81871 83269 83278 84717 84731 86470 86536 86804 86865"
**.bus[17].udpApp[0].positions = "2642 2658 2878 2908 3157 3174 3415 3429"
**.bus[18].udpApp[0].positions = "4440 4477 4705 4740 4956 4971 6038 6050 7076 7089 8326 8412 8550 8597 8876 8912 14109 14167 14425 14464 14614 14634 15578 15593 16463 16469 17443 17453 40519 40531 40699 40713 40811 40830 40916 40925 45426 45435 45560 45581 45667 45678 46668 46685 48024 48044 48943 48967 49060 49073 49171 49186 54696 54727 54927 54944 55071 55085 56351 56369 57804 57814 59338 59372 59571 59604 59827 59860 66610 66631 66964 67061 67214 67269 68754 68767 69724 69742 72413 72492 72650 72662 72973 72987 74988 75009 75249 75317 75499 75514 77138 77524 77620 77645 79482 79547 79714 79747 80027 80038 85440 85470 85668 85816 86038 86058"
**.bus[19].udpApp[0].positions = "1781 1805 2159 2188 2394 2420 4044 4061 4187 4195 46215 46229 47203 47215 47275 47293 47395 47405 52803 52813 53030 53056 53140 53153 54085 54104 56055 56070 57565 57593 57760 57801 58035 58059 64623 64652 64960 65011 65184 65196 66794 66810 67884 67901 70552 70573 70744 70765 70985 71027 73076 73132 73504 73544 73717 73733 75381 75395 77549 77631 77829 77850 78150 78163 83739 83746 84014 84031 84273 84290 85472 85484 87224 87234"
**.bus[20].udpApp[0].positions = "933 956 1255 1340 1481 1527 1703 1722 7710 7722 7939 8002 8195 8216 8424 8434 51891 51923 52223 52237 52353 52380 52537 52592 59081 59108 59409 59430 59666 59731 59955 59965 61354 61371 61481 61502 61682 61687 63285 63294 63448 63461 63649 63660 65526 65554 65891 65906 66042 66084 66392 66424 73597 73619 73908 73969 74209 74237 74484 74500 75737 75757 75927 75935 76045 76052 77601 77622 77731 77747 77896 77916 79563 79584 80058 80134 80313 80347 80623 80636 87762 87777 88170 88222"
**.bus[21].udpApp[0].positions = "1744 1774 2048 2069 2280 2299 2577 2590 3922 3961 4099 4111 4215 4221 5375 5422 5539 5549 5696 5722 7179 7198 7475 7491 7699 7723 7916 7931 13942 13961 14118 14143 14401 14432 14703 14712 15955 15970 16090 16099 16221 16235 16679 16685 16787 16800 16900 16906 18020 18041 18330 18404 18695 18707 18890 18903 47387 47401 47464 47475 47548 47551 48361 48370 48542 48552 48644 48660 50143 50168 50406 50418 50541 50562 50744 50767 57356 57367 57747 57805 57993 58007 58205 58216 59583 59603 59773 59799 59907 59911 60518 60595 60754 60770 60919 60938 62396 62420 62861 62898 63044 63064 63239 63267 69886 69902 70153 70215 70336 70356 70557 70569 71960 71983 72197 72213 72364 72370 74042 74050 74183 74204 74321 74341 75955 75985 76610 76658 76850 76907 77297 77313 84087 84105 84416 84443 84649 84662 84862 84875 86376 86394 86478 86493 86658 86724 88201 88208 88337 88353"
**.bus[22].udpApp[0].positions = "1470 1479 1815 1862 2072 2103 2345 2361 8302 8348 8579 8620 8784 8832 9077 9095 10390 10414 10512 10527 10629 10632 11094 11110 11246 11260 11374 11389 12645 12664 12894 12926 13104 13122 13374 13392 19065 19094 19346 19368 19493 19516 19694 19707 57984 57994 58055 58066 58463 58465 59665 59682 59976 60003 60146 60160 60395 60419 66991 67021 67435 67468 67586 67613 67887 67907 69340 69364 69482 69493 69639 69642 70965 70965 71426 71438 71672 71682 73146 73191 73712 73824 73995 74118 74317 74336 80552 80564 81008 81042 81160 81197 81532 81538 82812 82819 82909 82926 83119 83123 84762 84847 85004 85017 85133 85147 86678 86699 87025 87119 87459 87508"
**.bus[23].udpApp[0].positions = "683 709 828 842 1022 1041 2717 2732 3156 3228 3510 3531 3799 3810 9752 9783 10084 10105 10220 10246 10560 10572 54362 54381 54636 54719 54872 54889 55088 55146 62026 62047 62305 62329 62533 62561 62854 62867 64487 64530 64696 64709 64954 64957 65852 65948 66044 66060 66219 66235 67829 67847 68431 68466 68651 68679 68934 68948 76041 76084 76491 76514 76836 76861 77158 77166 78411 78442 78542 78555 78672 78677 80350 80435 80528 80542 80681 80702 82354 82378 82888 82938 83113 83187"
**.bus[24].udpApp[0].positions = "75 110 406 445 740 768 991 1006 2454 2488 2589 2616 2783 2787 3638 3681 3809 3825 3942 3956 5412 5436 5752 5771 5936 5968 6238 6285 12136 12187 12437 12470 12615 12639 12879 12900 14177 14195 14270 14282 14362 14401 14934 14941 15043 15051 15139 15148 16229 16242 16529 16661 16889 16931 17122 17141 22203 22218 22361 22377 22519 22528 22623 22637 54454 54497 54656 54667 54789 54793 55496 55504 55627 55650 55762 55778 57086 57107 57288 57341 57508 57542 57824 57868 65155 65171 65510 65531 65706 65724"
**.bus[25].udpApp[0].positions = "475 485 780 814 1137 1198 1462 1474 2669 2682 2794 2809 2886 2891 3889 3898 3979 3989 4109 4119 46080 46096 46271 46291 46364 46376 46483 46495 52615 52623 52850 52873 53005 53020 53289 53300 54711 54730 54883 54898 55033 55037 56306 56385 56543 56558 56675 56687 58194 58213 58561 58577 58717 58791 59062 59084 65692 65720 66048 66076 66292 66355 66628 66645 67810 67858 67975 67992 68083 68088 69550 69622 69716 69724 69792 69807 71375 71397 71953 72010 72170 72229 72465 72494 79617 79642 79916 79944 80088 80120 80324 80340 81979 82007 82116 82129 82244 82250 83933 83949 84104 84121 84295 84319 85727 85751 86408 86518 86714 86730"
**.bus[26].udpApp[0].positions = "5095 5122 5441 5472 5682 5706 5906 5935 7083 7103 7226 7235 7341 7352 9152 9167 9284 9294 9473 9490 10927 10944 11226 11276 11424 11453 11746 11757 17375 17396 17647 17672 17927 18010 18182 18189 47365 47378 47541 47587 47705 47753 47859 47868 53934 53951 54195 54218 54391 54438 54621 54631 56028 56048 56213 56233 56386 56390 57051 57165 57366 57382 57550 57560 58963 58995 59289 59316 59469 59501 59737 59761 66810 66896 67415 67443 67603 67706 67971 67982 69314 69323 69428 69441 69538 69548 72110 72116"
**.bus[27].udpApp[0].positions = "4342 4371 4656 4691 4828 4869 5143 5156 41237 41251 41417 41448 41566 41596 41729 41741 47821 47836 48021 48041 48142 48200 48372 48385 49875 49886 49983 49994 50074 50078 50791 50809 50929 50942 51049 51063 52309 52322 52602 52648 52742 52774 52973 52991 60477 60503 60746 60785 61001 61032 61331 61344 62570 62607 62806 62833 62995 62999 64135 64152 64237 64249 64389 64416 65921 65934 66356 66372 66520 66547 66740 66757 74281 74292 74501 74522 74769 74819 75050 75061 76484 76503 76709 76714 78504 78552 78677 78692 78789 78805 80572 80589 80923 80986 81157 81195 81465 81474"
**.bus[28].udpApp[0].positions = "27 82 387 400 6963 6974 7155 7220 7357 7387 7626 7648 9026 9042 9137 9149 9317 9334 9937 9978 10080 10095 10161 10173 39938 39955 40170 40190 40275 40286 40375 40390 46178 46204 46418 46433 46503 46515 46627 46638 47974 48010 48047 48058 48187 48193 49522 49533 49641 49656 49736 49751 51235 51254 51518 51574 51649 51673 51828 51891 58455 58484 58694 58712 58947 58975 59192 59207 60510 60532 60673 60699 60807 60812 61381 61470 61599 61614 61755 61767 63341 63368 63815 63862 64016 64040 64286 64338 71826 71835 72120 72156 72413 72435 72784 72811 74270 74285 74477 74493 74636 74641 75886 75929 76084 76095 76312 76327 77827 77844 78102 78150 78380 78402 78653 78678 85905 85942 86246 86297 86535 86561 86744 86760 88139 88153 88246 88259"
**.bus[29].udpApp[0].positions = "1930 1958 2289 2329 2539 2557 2791 2807 4069 4087 4173 4184 4323 4327 4875 4884 42823 42833 42950 42966 43026 43043 43140 43150 48956 48967 49247 49268 49367 49449 49657 49667 50938 50951 51028 51039 51182 51187 52124 52167 52283 52289 52412 52421 54093 54115 54416 54470 54550 54575 54729 54742 61253 61266 61504 61545 61700 61738 61985 62001 62998 63011 63134 63146 63279 63284 65029 65035 65138 65152 65377 65393 67199 67212 67701 67723 67968 67992 68249 68286 75292 75353 75667 75704 75858 75868 76120 76127 77636 77664 77823 77836 77937 77940 79454 79474 79598 79612 79756 79791 81333 81352 81740 81814 82008 82024"
**.bus[30].udpApp[0].positions = "976 1001 1132 1146 2428 2441 2479 2492 2550 2596 2672 2693 5207 5221 5278 5291 5361 5373 5390 5399 6237 6245 6324 6331 6789 6799 6861 6871 7775 7802 7826 7843 7898 7943 8004 8045 9774 9792 9868 9884 9939 9954 9978 9990 10848 10883 10936 10947 13807 13827 13934 13949 15044 15050 15063 15070 15100 15115 15168 15240 16694 16740 16832 16841 16915 16929 16955 16968 17821 17832"
**.bus[31].udpApp[0].positions = "4732 4742 6335 6346 22294 22303 46678 46689 56244 56259 57001 57011 67050 67062 69744 69756 79846 79856"
**.bus[32].udpApp[0].positions = "6575 6581 44897 44917 54314 54331 55264 55275 65055 65075 68020 68034 77830 77845"
**.bus[33].udpApp[0].positions = "2164 2187 2219 2246 2938 2958 3159 3189 3341 3350 3462 3496 3554 3565 3630 3648 3788 3795 61086 61095 61221 61231 61355 61358 62337 62343 62458 62470 62620 62635 64051 64080 64456 64469 64600 64643 64955 64992 72427 72438 72694 72753 72990 73040 73371 73382 74670 74689 74773 74786 74972 74981 76733 76818 76909 76920 77098 77116 78658 78679 79102 79124 79350 79390 79704 79716 86951 86964 87303 87371 87601 87635"
**.bus[34].udpApp[0].positions = "1474 1490 59358 59380 59598 59623 60920 60937 60965 60981 61060 61093 61208 61231 66546 66565 66592 66600"
**.bus[35].udpApp[0].positions = "48513 48526 58051 58056 58977 58992 68775 68785 71507 71522 81489 81499"
**.bus[36].udpApp[0].positions = "2956 2972 66146 66177 75980 75997 78760 78775"
**.bus[37].udpApp[0].positions = "4143 4197 4222 4240 5121 5163 5326 5380 5584 5603 5727 5747 5788 5834 5874 5885 5997 6048 51665 51686 61753 61765 62505 62523 72411 72423 75197 75208 85063 85069"
**.bus[38].udpApp[0].positions = "2217 2274 3909 3926 4016 4031 4214 4220 6805 6850 6972 6987 7151 7168 9088 9129 13283 13302 14710 14722 14850 14868 14945 14954 68363 68380 68615 68625 69828 69837 69860 69878 69974 69997 70101 70125 75475 75525 75635 75656 75719 75739 75759 75770 76876 76894 77005 77013 77576 77616 77729 77739 78888 78903 78937 78967 79038 79052 79171 79186 83566 83598 83726 83771 83837 83852 83874 83883 84905 84916 85035 85046 85646 85664 85734 85747 86931 86941 86994 87017 87078 87102 87172 87187"
**.bus[39].udpApp[0].positions = "1062 1071 1205 1215 43256 43266 52418 52427 53457 53468 63371 63386 64445 64465 74194 74199 76845 76865"
**.bus[40].udpApp[0].positions = "6158 6183 6427 6491 6624 6638 6887 6895 43873 43890 44156 44181 44260 44277 44390 44405 50275 50307 50537 50553 50653 50666 50835 50848 52225 52233 52344 52362 52451 52454 53328 53412 53502 53514 53616 53634 55081 55094 55294 55311 55474 55486 55631 55673 62935 62952 63303 63345 63510 63534 63812 63829 65228 65252 65381 65393 65520 65539 66827 66839 66977 67003 67154 67161 68835 68934 69458 69513 69673 69769 69944 69980 76900 76916 77193 77224 77465 77478 77773 77786 79106 79131 79273 79286 79437 79457 81183 81196 81393 81393 81498 81513 83165 83193 83525 83538 83694 83759"
**.bus[41].udpApp[0].positions = "995 1013 1140 1159 1243 1255 2289 2302 2402 2415 2568 2581 63142 63156 63382 63462 63633 63671 63843 63908 71152 71174 71557 71598 71797 71823 72077 72086 73437 73462 73580 73599 73819 73825 74968 74998 75101 75111 75196 75207 76956 76981 77393 77415 77674 77699 77947 77962 85051 85070 85474 85558 85865 85931 86116 86133 87459 87473 87551 87570 87678 87683 88471 88485"
**.bus[42].udpApp[0].positions = "710 730 834 844 1058 1077 1867 1877 1983 1999 2072 2094 3550 3567 3805 3855 4023 4068 4336 4348 10395 10408 10608 10637 10810 10857 11097 11107 12351 12370 12461 12474 12589 12593 13092 13119 13244 13251 13349 13363 14752 14770 15216 15341 15523 15538 15790 15801 20832 20844 21009 21025 21203 21265 21436 21455 49021 49038 49260 49282 49360 49380 49527 49542 56045 56080 56280 56312 56507 56540 56702 56712 58030 58038 58154 58179 58330 58369 59658 59665 59792 59811 59925 59939 61705 61728 62101 62158 62313 62326 62572 62609 69476 69508 69905 69974 70123 70138 70422 70450 71821 71844 72020 72036 72245 72258 73075 73125 73254 73268 73357 73377 74891 74914 75408 75485 75629 75659 75918 75952 83516 83524 83773 83815 84028 84045 84269 84278 85799 85805 85881 85911 86079 86135 87071 87168 87288 87300"
**.bus[43].udpApp[0].positions = "4142 4168 4441 4475 4715 4786 5043 5058 6347 6369 6503 6518 6678 6681 7351 7356 7471 7479 7596 7613 9209 9221 9545 9619 9768 9811 10126 10141 15598 15631 15860 15893 16117 16144 16407 16423 17655 17661 17741 17747 17817 17822 18348 18358 18460 18476 18568 18581 57858 57866 57989 58003 58157 58160 58821 58904 59051 59075 59198 59215 60716 60746 61144 61205 61264 61275 61515 61532 68121 68163 68451 68472 68689 68753 69081 69096 70442 70458 70575 70586 70740 70759 71504 71592 71710 71723 71923 71937 73323 73348 73753 73886 74088 74212 74472 74491 81287 81300 81665 81702 82005 82042 82359 82374 83801 83825 83980 84001 84183 84196 85738 85786 85914 85927 86114 86129 87971 87983"
**.bus[44].udpApp[0].positions = "2727 2776 3089 3151 3308 3338 3505 3515 45109 45118 45306 45318 45418 45450 45589 45602 51609 51616 51796 51822 51954 51990 52212 52221 53594 53608 53720 53731 53823 53826 54573 54620 54772 54787 54901 54910 56335 56359 56646 56677 56795 56837 57076 57097 64053 64066 64371 64391 64573 64612 64962 64972 66277 66302 66486 66499 66712 66717 67742 67760 67869 67878 68043 68061 69455 69471 69779 69842 70010 70051 70279 70299 77772 77797 78163 78202 78386 78486 78737 78749 80308 80328 80435 80455 80605 80650 82128 82145 82281 82301 82411 82441 84078 84097 84488 84522 84666 84741"